/*--------------------------------*- C++ -*----------------------------------*\
| =========                 |                                                 |
| \\      /  F ield         | OpenFOAM: The Open Source CFD Toolbox           |
|  \\    /   O peration     | Version:  v2206                                 |
|   \\  /    A nd           | Website:  www.openfoam.com                      |
|    \\/     M anipulation  |                                                 |
\*---------------------------------------------------------------------------*/
FoamFile
{
    version     2.0;
    format      ascii;
    class       dictionary;
    object      blockMeshDict;
}
// * * * * * * * * * * * * * * * * * * * * * * * * * * * * * * * * * * * * * //

scale    1;

xmin    -6;           xmax    68.5;
ymin    -9.5;          ymax    0;
zmin    -2.9;          zmax    10.5;
zmid	3.160;

vertices
(
    ($xmin $ymin $zmin)
    ($xmax $ymin $zmin)
    ($xmax $ymax $zmin)
    ($xmin $ymax $zmin)
	
	($xmin $ymin $zmid)
    ($xmax $ymin $zmid)
    ($xmax $ymax $zmid)
    ($xmin $ymax $zmid)

    ($xmin $ymin $zmax)
    ($xmax $ymin $zmax)
    ($xmax $ymax $zmax)
    ($xmin $ymax $zmax)

);

blocks
(
    hex (0 1 2 3 4 5 6 7) ( 230 28 20 ) simpleGrading ( 1 1 1 )
	hex (4 5 6 7 8 9 10 11) ( 230 28 20 ) simpleGrading ( 1 1 1 )
	// hex (0 1 2 3 4 5 6 7) ( 230 28 35 ) simpleGrading ( 1 1 1 )
);

edges
(
);

boundary
(
    oversetHull
    {
        type overset;
        faces
        (
            (0 4 7 3) // xmin
			(4 8 11 7)
            (1 2 6 5) // xmax
			(5 6 10 9)
            (0 1 5 4) // ymin
			(4 5 9 8)
            // (3 7 6 2) // ymax
            (0 3 2 1) // bottom
            (8 9 10 11) // top
        );
    }

    hullMidPlane
    {
        type symmetry;
        faces
        (
            (3 7 6 2) // ymax
			(7 11 10 6)
        );
    }
);


// ************************************************************************* //
